Version 4
SHEET 1 2948 848
WIRE 1824 -32 1648 -32
WIRE 1648 32 1648 -32
WIRE 1824 32 1824 -32
WIRE 1824 272 1824 112
WIRE 1824 272 1584 272
WIRE 1456 288 944 288
WIRE 1824 304 1584 304
WIRE 1456 320 1344 320
WIRE 1728 336 1584 336
WIRE 944 368 944 288
WIRE 1824 384 1824 304
WIRE 2368 432 1952 432
WIRE 2640 432 2448 432
WIRE 2816 432 2640 432
WIRE 2944 432 2816 432
WIRE 2640 512 2640 432
WIRE 2816 512 2816 432
WIRE 1344 528 1344 320
WIRE 1488 528 1344 528
WIRE 1664 528 1568 528
WIRE 1728 528 1728 336
WIRE 1728 528 1664 528
WIRE 1824 544 1824 464
WIRE 1344 592 1344 528
WIRE 1664 624 1664 528
WIRE 1952 624 1952 432
WIRE 1952 624 1664 624
WIRE 2640 640 2640 576
WIRE 2816 640 2816 576
WIRE 1056 768 944 768
WIRE 1344 768 1344 672
WIRE 1344 768 1136 768
WIRE 944 832 944 768
FLAG 1824 544 0
FLAG 1648 32 0
FLAG 2640 640 0
FLAG 2816 640 0
FLAG 944 832 0
FLAG 944 368 0
SYMBOL TSV912 1520 304 R0
SYMATTR InstName U3
SYMBOL Res 1584 512 R90
WINDOW 0 0 56 VBottom 2
WINDOW 3 32 56 VTop 2
SYMATTR InstName R7
SYMATTR Value 22K
SYMBOL Res 1360 688 R180
WINDOW 0 36 76 Left 2
WINDOW 3 36 40 Left 2
SYMATTR InstName R8
SYMATTR Value 10K
SYMBOL Voltage 1824 128 R180
WINDOW 0 24 96 Left 2
WINDOW 3 24 16 Left 2
SYMATTR InstName V6
SYMATTR Value +3.3
SYMBOL Voltage 1824 368 R0
SYMATTR InstName V7
SYMATTR Value -3.3
SYMBOL Res 2464 416 R90
WINDOW 0 0 56 VBottom 2
WINDOW 3 32 56 VTop 2
SYMATTR InstName R9
SYMATTR Value 2K
SYMBOL Cap 2624 512 R0
SYMATTR InstName C1
SYMATTR Value 10p
SYMBOL Cap 2800 512 R0
SYMATTR InstName C2
SYMATTR Value 6800p
SYMBOL voltage 1040 768 R270
WINDOW 0 32 56 VTop 2
WINDOW 3 -32 56 VBottom 2
SYMATTR InstName V1
SYMATTR Value SINE(0 0.4714 60)
TEXT 1432 176 Left 2 !.tran 0 100ms 1ms
