Version 4
SHEET 1 2948 752
WIRE 1824 -32 1648 -32
WIRE 688 -16 592 -16
WIRE -512 0 -688 0
WIRE 688 32 688 -16
WIRE 1648 32 1648 -32
WIRE 1824 32 1824 -32
WIRE -512 64 -512 0
WIRE -160 96 -256 96
WIRE 16 96 -80 96
WIRE 160 96 96 96
WIRE 320 96 160 96
WIRE -688 112 -688 0
WIRE -1216 128 -1312 128
WIRE -1056 128 -1136 128
WIRE 160 128 160 96
WIRE -256 144 -256 96
WIRE 688 160 688 112
WIRE -1312 176 -1312 128
WIRE -1056 192 -1056 128
WIRE 160 240 160 208
WIRE 592 272 592 -16
WIRE 592 272 480 272
WIRE 1824 272 1824 112
WIRE 1824 272 1584 272
WIRE -512 288 -512 144
WIRE -512 288 -656 288
WIRE 320 288 320 96
WIRE 352 288 320 288
WIRE 1456 288 1216 288
WIRE -1056 304 -1056 272
WIRE -784 304 -1056 304
WIRE 688 304 480 304
WIRE 1824 304 1584 304
WIRE -512 320 -656 320
WIRE 224 320 160 320
WIRE 320 320 304 320
WIRE 352 320 320 320
WIRE 1456 320 1344 320
WIRE -1056 336 -1056 304
WIRE -784 336 -880 336
WIRE 592 336 480 336
WIRE 1728 336 1584 336
WIRE -624 352 -656 352
WIRE -576 352 -624 352
WIRE 688 352 688 304
WIRE -512 368 -512 320
WIRE 1824 384 1824 304
WIRE 2368 432 1952 432
WIRE 2640 432 2448 432
WIRE 2816 432 2640 432
WIRE 2944 432 2816 432
WIRE -880 464 -880 336
WIRE -624 464 -624 352
WIRE -624 464 -880 464
WIRE -576 480 -576 352
WIRE 160 480 160 320
WIRE 160 480 -576 480
WIRE 320 496 320 320
WIRE 384 496 320 496
WIRE 592 496 592 336
WIRE 592 496 464 496
WIRE 688 496 688 432
WIRE -1056 512 -1056 416
WIRE 2640 512 2640 432
WIRE 2816 512 2816 432
WIRE 1344 528 1344 320
WIRE 1488 528 1344 528
WIRE 1664 528 1568 528
WIRE 1728 528 1728 336
WIRE 1728 528 1664 528
WIRE 1824 544 1824 464
WIRE 592 560 592 496
WIRE 1216 560 1216 288
WIRE 1216 560 592 560
WIRE 1344 592 1344 528
WIRE 1664 624 1664 528
WIRE 1952 624 1952 432
WIRE 1952 624 1664 624
WIRE 2640 640 2640 576
WIRE 2816 640 2816 576
WIRE 1344 704 1344 672
FLAG -1056 512 0
FLAG 160 240 0
FLAG -256 144 0
FLAG -1312 176 0
FLAG 688 160 0
FLAG 688 496 0
FLAG -688 112 0
FLAG -512 368 0
FLAG 1344 704 0
FLAG 1824 544 0
FLAG 1648 32 0
FLAG 2640 640 0
FLAG 2816 640 0
SYMBOL TSV912 416 304 R0
SYMATTR InstName U1
SYMBOL Voltage -1120 128 R90
WINDOW 0 -32 56 VBottom 2
WINDOW 3 32 56 VTop 2
SYMATTR InstName V1
SYMATTR Value 1.2
SYMBOL Res -1072 176 R0
SYMATTR InstName R1
SYMATTR Value 7.15K
SYMBOL Res -1072 320 R0
SYMATTR InstName R2
SYMATTR Value 1K
SYMBOL Res 320 304 R90
WINDOW 0 0 56 VBottom 2
WINDOW 3 32 56 VTop 2
SYMATTR InstName R3
SYMATTR Value 100K
SYMBOL Res 480 480 R90
WINDOW 0 0 56 VBottom 2
WINDOW 3 32 56 VTop 2
SYMATTR InstName R4
SYMATTR Value 100K
SYMBOL Res 112 80 R90
WINDOW 0 0 56 VBottom 2
WINDOW 3 32 56 VTop 2
SYMATTR InstName R5
SYMATTR Value 100K
SYMBOL Res 176 224 R180
WINDOW 0 36 76 Left 2
WINDOW 3 36 40 Left 2
SYMATTR InstName R6
SYMATTR Value 100K
SYMBOL Voltage -64 96 R90
WINDOW 0 -32 56 VBottom 2
WINDOW 3 32 56 VTop 2
SYMATTR InstName V2
SYMATTR Value SINE(0.15 0.15 60)
SYMBOL Voltage 688 16 R0
SYMATTR InstName V3
SYMATTR Value +3.3
SYMBOL Voltage 688 336 R0
SYMATTR InstName V4
SYMATTR Value -3.3
SYMBOL TSV912 -720 320 R0
SYMATTR InstName U2
SYMBOL Voltage -512 160 R180
WINDOW 0 24 96 Left 2
WINDOW 3 24 16 Left 2
SYMATTR InstName V5
SYMATTR Value +3.3
SYMBOL TSV912 1520 304 R0
SYMATTR InstName U3
SYMBOL Res 1584 512 R90
WINDOW 0 0 56 VBottom 2
WINDOW 3 32 56 VTop 2
SYMATTR InstName R7
SYMATTR Value 62K
SYMBOL Res 1360 688 R180
WINDOW 0 36 76 Left 2
WINDOW 3 36 40 Left 2
SYMATTR InstName R8
SYMATTR Value 10K
SYMBOL Voltage 1824 128 R180
WINDOW 0 24 96 Left 2
WINDOW 3 24 16 Left 2
SYMATTR InstName V6
SYMATTR Value +3.3
SYMBOL Voltage 1824 368 R0
SYMATTR InstName V7
SYMATTR Value -3.3
SYMBOL Res 2464 416 R90
WINDOW 0 0 56 VBottom 2
WINDOW 3 32 56 VTop 2
SYMATTR InstName R9
SYMATTR Value 2K
SYMBOL Cap 2624 512 R0
SYMATTR InstName C1
SYMATTR Value 10p
SYMBOL Cap 2800 512 R0
SYMATTR InstName C2
SYMATTR Value 6800p
TEXT 584 632 Left 2 !.tran 0 50ms 1ms
TEXT -1016 -56 Left 2 ;Voltage Buffer -> 150mV
TEXT -1008 288 Left 2 ;1.2V -> 150mV
TEXT -328 464 Left 2 ;150mV
TEXT -240 0 Left 2 ;CT Input \n0 to 0.333Vac
TEXT 976 544 Left 2 ;-150mV to +150mV
TEXT 168 -64 Left 2 ;Level Shifting
RECTANGLE Normal -1352 -88 -380 624
RECTANGLE Normal -344 -88 904 648
RECTANGLE Normal 964 -88 2056 732
